gridlab-d/sing_grid/sing_grid/Substation_1/Substation_1.glm
#set double_format=%+.12lg
#set profiler=1
#set randomseed=10
#set relax_naming_rules=1
#set savefile=test.xml
#set minimum_timestep=15
clock {
	timezone PST+8PDT;
  starttime '2016-08-10 00:00:00';
  stoptime '2016-08-11 00:00:00';
}
module climate;
module market;
module connection; // FNCS
module powerflow{
  lu_solver "KLU";
	solver_method FBS;
	NR_iteration_limit 100;
}
module residential {
	implicit_enduses NONE;
}
module tape;
module generators;
#include "../../../../support/schedules/water_and_setpoint_schedule_v3.glm"
#include "../../../../support/schedules/appliance_schedules.glm"
//#include "outputs_te.glm"
#define FIXED_PRICE=0.127
#include "xfrmr_configs.glm"
//};
//class player {
  //    double value;
//}
#define VSOURCE=66000
//}

module climate;
module generators;
module connection;
module residential {
  implicit_enduses NONE;
};
#include "../../../../support/schedules/appliance_schedules.glm";
#include "../../../../support/schedules/water_and_setpoint_schedule_v5.glm";
#include "../../../../support/schedules/commercial_schedules.glm";
#set minimum_timestep=30;
#set relax_naming_rules=1;
#set warn=0;
object metrics_collector_writer {
  interval 300;
  interim 7200;
  //filename ${METRICS_FILE};
  filename my_metrics_;
  alternate yes;
  extension json;
};
object climate {
  name weather_Substation_1;
  // tmyfile "../../../../support/weather/weather_Bus 1_704199_32.49_-96.7_2016.dat";
  interpolate QUADRATIC;
  latitude 32.49;
  longitude -96.7;
  tz_meridian -90.00;
};
#ifdef WANT_VI_DUMP
object voltdump {
  filename Voltage_Dump_Substation_1.csv;
  mode polar;
}
object currdump {
  filename Current_Dump_Substation_1.csv;
  mode polar;
}
#endif
object triplex_line_conductor {
  name feeder1_triplex_4/0_aa;
  resistance 0.48;
  geometric_mean_radius 0.0158;
  rating.summer.continuous 1000.0;
  rating.summer.emergency 1000.0;
  rating.winter.continuous 1000.0;
  rating.winter.emergency 1000.0;
}
object triplex_line_configuration {
  name feeder1_tpx_config;
  conductor_1 feeder1_triplex_4/0_aa;
  conductor_2 feeder1_triplex_4/0_aa;
  conductor_N feeder1_triplex_4/0_aa;
  insulation_thickness 0.08;
  diameter 0.522;
}
object line_configuration {
  name feeder1_"lcon_singapore_line_type_3_A";
  z11 628.566+523.161j;
  c11 0.0000;
}
object line_configuration {
  name feeder1_"lcon_singapore_line_type_1_A";
  z11 370.088+523.161j;
  c11 0.0000;
}
object overhead_line {
  name "line_1";
// downstream 7952.08 kva on A
  from "1";
  to "21";
  phases A;
  length 3.6752;
  continuous_rating_A 400.00;
  emergency_rating_A 600.00;
  configuration feeder1_"lcon_singapore_line_type_1_A";
}
object overhead_line {
  name "line_2";
// downstream 7713.55 kva on A
  from "21";
  to "53";
  phases A;
  length 0.2750;
  continuous_rating_A 400.00;
  emergency_rating_A 600.00;
  configuration feeder1_"lcon_singapore_line_type_1_A";
}
object overhead_line {
  name "line_3";
// downstream 7513.14 kva on A
  from "53";
  to "130";
  phases A;
  length 3.0639;
  continuous_rating_A 400.00;
  emergency_rating_A 600.00;
  configuration feeder1_"lcon_singapore_line_type_1_A";
}
object overhead_line {
  name "line_4";
// downstream 7446.17 kva on A
  from "130";
  to "294";
  phases A;
  length 0.7187;
  continuous_rating_A 400.00;
  emergency_rating_A 600.00;
  configuration feeder1_"lcon_singapore_line_type_1_A";
}
object overhead_line {
  name "line_5";
// downstream 7291.26 kva on A
  from "294";
  to "33";
  phases A;
  length 1.5298;
  continuous_rating_A 400.00;
  emergency_rating_A 600.00;
  configuration feeder1_"lcon_singapore_line_type_1_A";
}
object overhead_line {
  name "line_6";
// downstream 7039.78 kva on A
  from "33";
  to "32";
  phases A;
  length 0.2613;
  continuous_rating_A 400.00;
  emergency_rating_A 600.00;
  configuration feeder1_"lcon_singapore_line_type_1_A";
}
object overhead_line {
  name "line_7";
// downstream 6814.45 kva on A
  from "32";
  to "323";
  phases A;
  length 0.4600;
  continuous_rating_A 400.00;
  emergency_rating_A 600.00;
  configuration feeder1_"lcon_singapore_line_type_1_A";
}
object overhead_line {
  name "line_8";
// downstream 6587.13 kva on A
  from "323";
  to "322";
  phases A;
  length 0.3478;
  continuous_rating_A 400.00;
  emergency_rating_A 600.00;
  configuration feeder1_"lcon_singapore_line_type_1_A";
}
object overhead_line {
  name "line_9";
// downstream 403.07 kva on A
  from "322";
  to "319";
  phases A;
  length 0.7895;
  continuous_rating_A 400.00;
  emergency_rating_A 600.00;
  configuration feeder1_"lcon_singapore_line_type_3_A";
}
object overhead_line {
  name "line_300";
// downstream 2578.00 kva on A
  from "116";
  to "73";
  phases A;
  length 0.6707;
  continuous_rating_A 400.00;
  emergency_rating_A 600.00;
  configuration feeder1_"lcon_singapore_line_type_1_A";
}
object overhead_line {
  name "line_301";
// downstream 1325.70 kva on A
  from "73";
  to "114";
  phases A;
  length 0.4708;
  continuous_rating_A 400.00;
  emergency_rating_A 600.00;
  configuration feeder1_"lcon_singapore_line_type_3_A";
}
object overhead_line {
  name "line_302";
// downstream 1098.78 kva on A
  from "114";
  to "13";
  phases A;
  length 0.4733;
  continuous_rating_A 400.00;
  emergency_rating_A 600.00;
  configuration feeder1_"lcon_singapore_line_type_3_A";
}
object overhead_line {
  name "line_303";
// downstream 955.09 kva on A
  from "73";
  to "115";
  phases A;
  length 0.3329;
  continuous_rating_A 400.00;
  emergency_rating_A 600.00;
  configuration feeder1_"lcon_singapore_line_type_3_A";
}
object overhead_line {
  name "line_304";
// downstream 710.91 kva on A
  from "115";
  to "278";
  phases A;
  length 0.3487;
  continuous_rating_A 400.00;
  emergency_rating_A 600.00;
  configuration feeder1_"lcon_singapore_line_type_3_A";
}
object overhead_line {
  name "line_305";
// downstream 500.39 kva on A
  from "13";
  to "6";
  phases A;
  length 0.5207;
  continuous_rating_A 400.00;
  emergency_rating_A 600.00;
  configuration feeder1_"lcon_singapore_line_type_3_A";
}
object overhead_line {
  name "line_306";
// downstream 403.00 kva on A
  from "278";
  to "26";
  phases A;
  length 0.9929;
  continuous_rating_A 400.00;
  emergency_rating_A 600.00;
  configuration feeder1_"lcon_singapore_line_type_3_A";
}
object overhead_line {
  name "line_307";
// downstream 344.24 kva on A
  from "13";
  to "24";
  phases A;
  length 0.8789;
  continuous_rating_A 400.00;
  emergency_rating_A 600.00;
  configuration feeder1_"lcon_singapore_line_type_3_A";
}
object overhead_line {
  name "line_308";
// downstream 317.76 kva on A
  from "26";
  to "27";
  phases A;
  length 0.6417;
  continuous_rating_A 400.00;
  emergency_rating_A 600.00;
  configuration feeder1_"lcon_singapore_line_type_3_A";
}
object overhead_line {
  name "line_309";
// downstream 259.45 kva on A
  from "6";
  to "12";
  phases A;
  length 0.3921;
  continuous_rating_A 400.00;
  emergency_rating_A 600.00;
  configuration feeder1_"lcon_singapore_line_type_3_A";
}
object overhead_line {
  name "line_310";
// downstream 229.49 kva on A
  from "27";
  to "34";
  phases A;
  length 0.5939;
  continuous_rating_A 400.00;
  emergency_rating_A 600.00;
  configuration feeder1_"lcon_singapore_line_type_3_A";
}
object overhead_line {
  name "line_311";
// downstream 125.49 kva on A
  from "12";
  to "99";
  phases A;
  length 0.5302;
  continuous_rating_A 400.00;
  emergency_rating_A 600.00;
  configuration feeder1_"lcon_singapore_line_type_3_A";
}
object overhead_line {
  name "line_312";
// downstream 6691.82 kva on A
  from "3";
  to "196";
  phases A;
  length 1.0241;
  continuous_rating_A 400.00;
  emergency_rating_A 600.00;
  configuration feeder1_"lcon_singapore_line_type_1_A";
}
object overhead_line {
  name "line_313";
// downstream 6615.89 kva on A
  from "196";
  to "184";
  phases A;
  length 0.9943;
  continuous_rating_A 400.00;
  emergency_rating_A 600.00;
  configuration feeder1_"lcon_singapore_line_type_1_A";
}
object overhead_line {
  name "line_314";
// downstream 5562.90 kva on A
  from "184";
  to "142";
  phases A;
  length 0.5020;
  continuous_rating_A 400.00;
  emergency_rating_A 600.00;
  configuration feeder1_"lcon_singapore_line_type_1_A";
}
object overhead_line {
  name "line_315";
// downstream 5449.66 kva on A
  from "142";
  to "198";
  phases A;
  length 0.6047;
  continuous_rating_A 400.00;
  emergency_rating_A 600.00;
  configuration feeder1_"lcon_singapore_line_type_1_A";
}
object overhead_line {
  name "line_316";
// downstream 5373.70 kva on A
  from "198";
  to "81";
  phases A;
  length 0.5132;
  continuous_rating_A 400.00;
  emergency_rating_A 600.00;
  configuration feeder1_"lcon_singapore_line_type_1_A";
}
object overhead_line {
  name "line_317";
// downstream 976.84 kva on A
  from "184";
  to "139";
  phases A;
  length 0.4283;
  continuous_rating_A 400.00;
  emergency_rating_A 600.00;
  configuration feeder1_"lcon_singapore_line_type_3_A";
}
object overhead_line {
  name "line_318";
// downstream 826.57 kva on A
  from "139";
  to "174";
  phases A;
  length 0.2882;
  continuous_rating_A 400.00;
  emergency_rating_A 600.00;
  configuration feeder1_"lcon_singapore_line_type_3_A";
}
object overhead_line {
  name "line_319";
// downstream 563.59 kva on A
  from "174";
  to "187";
  phases A;
  length 0.2622;
  continuous_rating_A 400.00;
  emergency_rating_A 600.00;
  configuration feeder1_"lcon_singapore_line_type_3_A";
}
object overhead_line {
  name "line_320";
// downstream 487.41 kva on A
  from "187";
  to "188";
  phases A;
  length 0.4097;
  continuous_rating_A 400.00;
  emergency_rating_A 600.00;
  configuration feeder1_"lcon_singapore_line_type_3_A";
}
object overhead_line {
  name "line_200";
// downstream 7340.07 kva on A
  from "2";
  to "158";
  phases A;
  length 2.5464;
  continuous_rating_A 400.00;
  emergency_rating_A 600.00;
  configuration feeder1_"lcon_singapore_line_type_1_A";
}
object overhead_line {
  name "line_321";
// downstream 411.39 kva on A
  from "188";
  to "147";
  phases A;
  length 0.5443;
  continuous_rating_A 400.00;
  emergency_rating_A 600.00;
  configuration feeder1_"lcon_singapore_line_type_3_A";
}
object overhead_line {
  name "line_201";
// downstream 6871.84 kva on A
  from "158";
  to "208";
  phases A;
  length 0.7201;
  continuous_rating_A 400.00;
  emergency_rating_A 600.00;
  configuration feeder1_"lcon_singapore_line_type_1_A";
}
object overhead_line {
  name "line_322";
// downstream 262.28 kva on A
  from "81";
  to "284";
  phases A;
  length 0.2044;
  continuous_rating_A 400.00;
  emergency_rating_A 600.00;
  configuration feeder1_"lcon_singapore_line_type_3_A";
}
object overhead_line {
  name "line_202";
// downstream 285.36 kva on A
  from "208";
  to "121";
  phases A;
  length 0.3851;
  continuous_rating_A 400.00;
  emergency_rating_A 600.00;
  configuration feeder1_"lcon_singapore_line_type_3_A";
}
object overhead_line {
  name "line_323";
// downstream 189.09 kva on A
  from "174";
  to "149";
  phases A;
  length 0.5139;
  continuous_rating_A 400.00;
  emergency_rating_A 600.00;
  configuration feeder1_"lcon_singapore_line_type_3_A";
}
object overhead_line {
  name "line_203";
// downstream 218.59 kva on A
  from "121";
  to "55";
  phases A;
  length 0.6698;
  continuous_rating_A 400.00;
  emergency_rating_A 600.00;
  configuration feeder1_"lcon_singapore_line_type_3_A";
}
object overhead_line {
  name "line_324";
// downstream 186.49 kva on A
  from "147";
  to "256";
  phases A;
  length 0.3172;
  continuous_rating_A 400.00;
  emergency_rating_A 600.00;
  configuration feeder1_"lcon_singapore_line_type_3_A";
}
object overhead_line {
  name "line_204";
// downstream 80.79 kva on A
  from "55";
  to "42";
  phases A;
  length 0.3415;
  continuous_rating_A 400.00;
  emergency_rating_A 600.00;
  configuration feeder1_"lcon_singapore_line_type_3_A";
}
object overhead_line {
  name "line_325";
// downstream 113.05 kva on A
  from "149";
  to "177";
  phases A;
  length 0.6968;
  continuous_rating_A 400.00;
  emergency_rating_A 600.00;
  configuration feeder1_"lcon_singapore_line_type_3_A";
}
object overhead_line {
  name "line_205";
// downstream 6456.91 kva on A
  from "2";
  to "160";
  phases A;
  length 1.8759;
  continuous_rating_A 400.00;
  emergency_rating_A 600.00;
  configuration feeder1_"lcon_singapore_line_type_1_A";
}
object overhead_line {
  name "line_326";
// downstream 111.43 kva on A
  from "81";
  to "302";
  phases A;
  length 0.1561;
  continuous_rating_A 400.00;
  emergency_rating_A 600.00;
  configuration feeder1_"lcon_singapore_line_type_3_A";
}
object overhead_line {
  name "line_206";
// downstream 6207.43 kva on A
  from "160";
  to "210";
  phases A;
  length 0.6057;
  continuous_rating_A 400.00;
  emergency_rating_A 600.00;
  configuration feeder1_"lcon_singapore_line_type_1_A";
}
object overhead_line {
  name "line_327";
// downstream 74.94 kva on A
  from "256";
  to "262";
  phases A;
  length 0.3848;
  continuous_rating_A 400.00;
  emergency_rating_A 600.00;
  configuration feeder1_"lcon_singapore_line_type_3_A";
}
object overhead_line {
  name "line_207";
// downstream 799.46 kva on A
  from "210";
  to "161";
  phases A;
  length 0.4025;
  continuous_rating_A 400.00;
  emergency_rating_A 600.00;
  configuration feeder1_"lcon_singapore_line_type_3_A";
}
object overhead_line {
  name "line_328";
// downstream 74.49 kva on A
  from "139";
  to "140";
  phases A;
  length 0.9787;
  continuous_rating_A 400.00;
  emergency_rating_A 600.00;
  configuration feeder1_"lcon_singapore_line_type_3_A";
}
object overhead_line {
  name "line_208";
// downstream 251.66 kva on A
  from "161";
  to "159";
  phases A;
  length 0.3500;
  continuous_rating_A 400.00;
  emergency_rating_A 600.00;
  configuration feeder1_"lcon_singapore_line_type_3_A";
}
object overhead_line {
  name "line_329";
// downstream 73.93 kva on A
  from "284";
  to "181";
  phases A;
  length 0.3360;
  continuous_rating_A 400.00;
  emergency_rating_A 600.00;
  configuration feeder1_"lcon_singapore_line_type_3_A";
}
object overhead_line {
  name "line_209";
// downstream 171.97 kva on A
  from "161";
  to "143";
  phases A;
  length 0.4688;
  continuous_rating_A 400.00;
  emergency_rating_A 600.00;
  configuration feeder1_"lcon_singapore_line_type_3_A";
}
object overhead_line {
  name "line_330";
// downstream 5366.85 kva on A
  from "3";
  to "197";
  phases A;
  length 1.2203;
  continuous_rating_A 400.00;
  emergency_rating_A 600.00;
  configuration feeder1_"lcon_singapore_line_type_1_A";
}
object overhead_line {
  name "line_210";
// downstream 7469.63 kva on A
  from "2";
  to "163";
  phases A;
  length 2.0122;
  continuous_rating_A 400.00;
  emergency_rating_A 600.00;
  configuration feeder1_"lcon_singapore_line_type_1_A";
}
object overhead_line {
  name "line_331";
// downstream 5301.57 kva on A
  from "197";
  to "185";
  phases A;
  length 0.7816;
  continuous_rating_A 400.00;
  emergency_rating_A 600.00;
  configuration feeder1_"lcon_singapore_line_type_1_A";
}
object overhead_line {
  name "line_211";
// downstream 7362.98 kva on A
  from "163";
  to "164";
  phases A;
  length 0.3726;
  continuous_rating_A 400.00;
  emergency_rating_A 600.00;
  configuration feeder1_"lcon_singapore_line_type_1_A";
}
object overhead_line {
  name "line_332";
// downstream 5226.04 kva on A
  from "185";
  to "204";
  phases A;
  length 0.6218;
  continuous_rating_A 400.00;
  emergency_rating_A 600.00;
  configuration feeder1_"lcon_singapore_line_type_1_A";
}
object overhead_line {
  name "line_212";
// downstream 7127.49 kva on A
  from "164";
  to "150";
  phases A;
  length 0.5273;
  continuous_rating_A 400.00;
  emergency_rating_A 600.00;
  configuration feeder1_"lcon_singapore_line_type_1_A";
}
object overhead_line {
  name "line_333";
// downstream 5150.09 kva on A
  from "204";
  to "80";
  phases A;
  length 0.2826;
  continuous_rating_A 400.00;
  emergency_rating_A 600.00;
  configuration feeder1_"lcon_singapore_line_type_1_A";
}
object overhead_line {
  name "line_213";
// downstream 6776.41 kva on A
  from "150";
  to "148";
  phases A;
  length 0.5171;
  continuous_rating_A 400.00;
  emergency_rating_A 600.00;
  configuration feeder1_"lcon_singapore_line_type_1_A";
}
object overhead_line {
  name "line_334";
// downstream 150.10 kva on A
  from "80";
  to "203";
  phases A;
  length 0.0852;
  continuous_rating_A 400.00;
  emergency_rating_A 600.00;
  configuration feeder1_"lcon_singapore_line_type_3_A";
}
object overhead_line {
  name "line_214";
// downstream 6457.78 kva on A
  from "148";
  to "146";
  phases A;
  length 0.3203;
  continuous_rating_A 400.00;
  emergency_rating_A 600.00;
  configuration feeder1_"lcon_singapore_line_type_1_A";
}
object overhead_line {
  name "line_335";
// downstream 3747.41 kva on A
  from "4";
  to "209";
  phases A;
  length 1.5209;
  continuous_rating_A 400.00;
  emergency_rating_A 600.00;
  configuration feeder1_"lcon_singapore_line_type_3_A";
}
object overhead_line {
  name "line_215";
// downstream 6222.77 kva on A
  from "146";
  to "76";
  phases A;
  length 0.2497;
  continuous_rating_A 400.00;
  emergency_rating_A 600.00;
  configuration feeder1_"lcon_singapore_line_type_1_A";
}
object overhead_line {
  name "line_336";
// downstream 3021.68 kva on A
  from "209";
  to "254";
  phases A;
  length 0.9761;
  continuous_rating_A 400.00;
  emergency_rating_A 600.00;
  configuration feeder1_"lcon_singapore_line_type_1_A";
}
object overhead_line {
  name "line_216";
// downstream 131.68 kva on A
  from "76";
  to "145";
  phases A;
  length 0.2188;
  continuous_rating_A 400.00;
  emergency_rating_A 600.00;
  configuration feeder1_"lcon_singapore_line_type_3_A";
}
object overhead_line {
  name "line_337";
// downstream 2941.16 kva on A
  from "254";
  to "226";
  phases A;
  length 1.0738;
  continuous_rating_A 400.00;
  emergency_rating_A 600.00;
  configuration feeder1_"lcon_singapore_line_type_1_A";
}
object overhead_line {
  name "line_217";
// downstream 6934.14 kva on A
  from "2";
  to "171";
  phases A;
  length 2.4176;
  continuous_rating_A 400.00;
  emergency_rating_A 600.00;
  configuration feeder1_"lcon_singapore_line_type_1_A";
}
object overhead_line {
  name "line_338";
// downstream 2860.84 kva on A
  from "226";
  to "251";
  phases A;
  length 0.8770;
  continuous_rating_A 400.00;
  emergency_rating_A 600.00;
  configuration feeder1_"lcon_singapore_line_type_3_A";
}
object overhead_line {
  name "line_218";
// downstream 6789.29 kva on A
  from "171";
  to "104";
  phases A;
  length 0.6189;
  continuous_rating_A 400.00;
  emergency_rating_A 600.00;
  configuration feeder1_"lcon_singapore_line_type_1_A";
}
object overhead_line {
  name "line_339";
// downstream 2785.24 kva on A
  from "251";
  to "207";
  phases A;
  length 0.1454;
  continuous_rating_A 400.00;
  emergency_rating_A 600.00;
  configuration feeder1_"lcon_singapore_line_type_3_A";
}
object overhead_line {
  name "line_219";
// downstream 6546.43 kva on A
  from "104";
  to "156";
  phases A;
  length 0.4447;
  continuous_rating_A 400.00;
  emergency_rating_A 600.00;
  configuration feeder1_"lcon_singapore_line_type_1_A";
}
object overhead_line {
  name "line_340";
// downstream 596.83 kva on A
  from "207";
  to "222";
  phases A;
  length 0.5190;
  continuous_rating_A 400.00;
  emergency_rating_A 600.00;
  configuration feeder1_"lcon_singapore_line_type_3_A";
}
object overhead_line {
  name "line_220";
// downstream 6262.63 kva on A
  from "156";
  to "132";
  phases A;
  length 0.3880;
  continuous_rating_A 400.00;
  emergency_rating_A 600.00;
  configuration feeder1_"lcon_singapore_line_type_1_A";
}
object overhead_line {
  name "line_341";
// downstream 374.33 kva on A
  from "222";
  to "220";
  phases A;
  length 0.4239;
  continuous_rating_A 400.00;
  emergency_rating_A 600.00;
  configuration feeder1_"lcon_singapore_line_type_3_A";
}
object overhead_line {
  name "line_100";
// downstream 528.88 kva on A
  from "308";
  to "101";
  phases A;
  length 0.6206;
  continuous_rating_A 400.00;
  emergency_rating_A 600.00;
  configuration feeder1_"lcon_singapore_line_type_3_A";
}
object overhead_line {
  name "line_221";
// downstream 6818.56 kva on A
  from "2";
  to "310";
  phases A;
  length 1.4752;
  continuous_rating_A 400.00;
  emergency_rating_A 600.00;
  configuration feeder1_"lcon_singapore_line_type_1_A";
}
object overhead_line {
  name "line_342";
// downstream 373.43 kva on A
  from "207";
  to "250";
  phases A;
  length 0.2204;
  continuous_rating_A 400.00;
  emergency_rating_A 600.00;
  configuration feeder1_"lcon_singapore_line_type_3_A";
}
object overhead_line {
  name "line_101";
// downstream 330.88 kva on A
  from "101";
  to "97";
  phases A;
  length 0.5879;
  continuous_rating_A 400.00;
  emergency_rating_A 600.00;
  configuration feeder1_"lcon_singapore_line_type_3_A";
}
object overhead_line {
  name "line_222";
// downstream 6690.58 kva on A
  from "310";
  to "162";
  phases A;
  length 1.1319;
  continuous_rating_A 400.00;
  emergency_rating_A 600.00;
  configuration feeder1_"lcon_singapore_line_type_1_A";
}
object overhead_line {
  name "line_343";
// downstream 299.61 kva on A
  from "250";
  to "225";
  phases A;
  length 0.3140;
  continuous_rating_A 400.00;
  emergency_rating_A 600.00;
  configuration feeder1_"lcon_singapore_line_type_3_A";
}
object overhead_line {
  name "line_102";
// downstream 215.78 kva on A
  from "325";
  to "321";
  phases A;
  length 0.8615;
  continuous_rating_A 400.00;
  emergency_rating_A 600.00;
  configuration feeder1_"lcon_singapore_line_type_3_A";
}
object overhead_line {
  name "line_223";
// downstream 6398.73 kva on A
  from "162";
  to "144";
  phases A;
  length 0.4290;
  continuous_rating_A 400.00;
  emergency_rating_A 600.00;
  configuration feeder1_"lcon_singapore_line_type_1_A";
}
object overhead_line {
  name "line_344";
// downstream 299.33 kva on A
  from "220";
  to "261";
  phases A;
  length 0.6183;
  continuous_rating_A 400.00;
  emergency_rating_A 600.00;
  configuration feeder1_"lcon_singapore_line_type_3_A";
}
object overhead_line {
  name "line_103";
// downstream 184.26 kva on A
  from "325";
  to "324";
  phases A;
  length 0.6627;
  continuous_rating_A 400.00;
  emergency_rating_A 600.00;
  configuration feeder1_"lcon_singapore_line_type_3_A";
}
object overhead_line {
  name "line_224";
// downstream 6106.47 kva on A
  from "144";
  to "133";
  phases A;
  length 0.1115;
  continuous_rating_A 400.00;
  emergency_rating_A 600.00;
  configuration feeder1_"lcon_singapore_line_type_1_A";
}
object overhead_line {
  name "line_345";
// downstream 225.79 kva on A
  from "225";
  to "224";
  phases A;
  length 0.3639;
  continuous_rating_A 400.00;
  emergency_rating_A 600.00;
  configuration feeder1_"lcon_singapore_line_type_3_A";
}
object overhead_line {
  name "line_104";
// downstream 162.48 kva on A
  from "23";
  to "64";
  phases A;
  length 0.4747;
  continuous_rating_A 400.00;
  emergency_rating_A 600.00;
  configuration feeder1_"lcon_singapore_line_type_3_A";
}
object overhead_line {
  name "line_225";
// downstream 5201.57 kva on A
  from "3";
  to "82";
  phases A;
  length 1.3980;
  continuous_rating_A 400.00;
  emergency_rating_A 600.00;
  configuration feeder1_"lcon_singapore_line_type_1_A";
}
object overhead_line {
  name "line_346";
// downstream 225.51 kva on A
  from "261";
  to "248";
  phases A;
  length 0.4916;
  continuous_rating_A 400.00;
  emergency_rating_A 600.00;
  configuration feeder1_"lcon_singapore_line_type_3_A";
}
object overhead_line {
  name "line_105";
// downstream 143.79 kva on A
  from "97";
  to "98";
  phases A;
  length 0.4189;
  continuous_rating_A 400.00;
  emergency_rating_A 600.00;
  configuration feeder1_"lcon_singapore_line_type_3_A";
}
object overhead_line {
  name "line_226";
// downstream 201.58 kva on A
  from "82";
  to "186";
  phases A;
  length 0.5721;
  continuous_rating_A 400.00;
  emergency_rating_A 600.00;
  configuration feeder1_"lcon_singapore_line_type_3_A";
}
object overhead_line {
  name "line_347";
// downstream 150.00 kva on A
  from "248";
  to "246";
  phases A;
  length 0.4101;
  continuous_rating_A 400.00;
  emergency_rating_A 600.00;
  configuration feeder1_"lcon_singapore_line_type_3_A";
}
object overhead_line {
  name "line_106";
// downstream 105.34 kva on A
  from "95";
  to "96";
  phases A;
  length 0.5024;
  continuous_rating_A 400.00;
  emergency_rating_A 600.00;
  configuration feeder1_"lcon_singapore_line_type_3_A";
}
object overhead_line {
  name "line_227";
// downstream 76.06 kva on A
  from "186";
  to "141";
  phases A;
  length 0.6607;
  continuous_rating_A 400.00;
  emergency_rating_A 600.00;
  configuration feeder1_"lcon_singapore_line_type_3_A";
}
object overhead_line {
  name "line_348";
// downstream 147.65 kva on A
  from "222";
  to "221";
  phases A;
  length 0.4487;
  continuous_rating_A 400.00;
  emergency_rating_A 600.00;
  configuration feeder1_"lcon_singapore_line_type_3_A";
}
object overhead_line {
  name "line_107";
// downstream 81.38 kva on A
  from "64";
  to "65";
  phases A;
  length 0.4306;
  continuous_rating_A 400.00;
  emergency_rating_A 600.00;
  configuration feeder1_"lcon_singapore_line_type_3_A";
}
object overhead_line {
  name "line_228";
// downstream 4190.56 kva on A
  from "3";
  to "136";
  phases A;
  length 1.3391;
  continuous_rating_A 400.00;
  emergency_rating_A 600.00;
  configuration feeder1_"lcon_singapore_line_type_3_A";
}
object overhead_line {
  name "line_349";
// downstream 113.27 kva on A
  from "224";
  to "249";
  phases A;
  length 0.3950;
  continuous_rating_A 400.00;
  emergency_rating_A 600.00;
  configuration feeder1_"lcon_singapore_line_type_3_A";
}
object overhead_line {
  name "line_108";
// downstream 79.54 kva on A
  from "326";
  to "320";
  phases A;
  length 0.9739;
  continuous_rating_A 400.00;
  emergency_rating_A 600.00;
  configuration feeder1_"lcon_singapore_line_type_3_A";
}
object overhead_line {
  name "line_229";
// downstream 2241.51 kva on A
  from "136";
  to "137";
  phases A;
  length 0.6282;
  continuous_rating_A 400.00;
  emergency_rating_A 600.00;
  configuration feeder1_"lcon_singapore_line_type_3_A";
}
object overhead_line {
  name "line_109";
// downstream 5850.19 kva on A
  from "1";
  to "274";
  phases A;
  length 3.1595;
  continuous_rating_A 400.00;
  emergency_rating_A 600.00;
  configuration feeder1_"lcon_singapore_line_type_1_A";
}
object overhead_line {
  name "line_350";
// downstream 75.04 kva on A
  from "246";
  to "245";
  phases A;
  length 0.3792;
  continuous_rating_A 400.00;
  emergency_rating_A 600.00;
  configuration feeder1_"lcon_singapore_line_type_3_A";
}
object overhead_line {
  name "line_230";
// downstream 2158.67 kva on A
  from "137";
  to "194";
  phases A;
  length 0.6843;
  continuous_rating_A 400.00;
  emergency_rating_A 600.00;
  configuration feeder1_"lcon_singapore_line_type_3_A";
}
object overhead_line {
  name "line_351";
// downstream 73.82 kva on A
  from "221";
  to "223";
  phases A;
  length 0.2888;
  continuous_rating_A 400.00;
  emergency_rating_A 600.00;
  configuration feeder1_"lcon_singapore_line_type_3_A";
}
object overhead_line {
  name "line_110";
// downstream 5402.46 kva on A
  from "274";
  to "367";
  phases A;
  length 0.4772;
  continuous_rating_A 400.00;
  emergency_rating_A 600.00;
  configuration feeder1_"lcon_singapore_line_type_1_A";
}
object overhead_line {
  name "line_231";
// downstream 2083.35 kva on A
  from "194";
  to "201";
  phases A;
  length 0.9514;
  continuous_rating_A 400.00;
  emergency_rating_A 600.00;
  configuration feeder1_"lcon_singapore_line_type_3_A";
}
object overhead_line {
  name "line_352";
// downstream 66.97 kva on A
  from "209";
  to "265";
  phases A;
  length 0.8536;
  continuous_rating_A 400.00;
  emergency_rating_A 600.00;
  configuration feeder1_"lcon_singapore_line_type_3_A";
}
object overhead_line {
  name "line_111";
// downstream 5223.74 kva on A
  from "367";
  to "329";
  phases A;
  length 0.3638;
  continuous_rating_A 400.00;
  emergency_rating_A 600.00;
  configuration feeder1_"lcon_singapore_line_type_1_A";
}
object overhead_line {
  name "line_232";
// downstream 1970.27 kva on A
  from "201";
  to "202";
  phases A;
  length 0.3320;
  continuous_rating_A 400.00;
  emergency_rating_A 600.00;
  configuration feeder1_"lcon_singapore_line_type_3_A";
}
object overhead_line {
  name "line_353";
// downstream 2390.26 kva on A
  from "4";
  to "233";
  phases A;
  length 1.4841;
  continuous_rating_A 400.00;
  emergency_rating_A 600.00;
  configuration feeder1_"lcon_singapore_line_type_3_A";
}
object overhead_line {
  name "line_112";
// downstream 223.75 kva on A
  from "329";
  to "370";
  phases A;
  length 0.1956;
  continuous_rating_A 400.00;
  emergency_rating_A 600.00;
  configuration feeder1_"lcon_singapore_line_type_3_A";
}
object overhead_line {
  name "line_233";
// downstream 1873.75 kva on A
  from "136";
  to "120";
  phases A;
  length 0.5401;
  continuous_rating_A 400.00;
  emergency_rating_A 600.00;
  configuration feeder1_"lcon_singapore_line_type_3_A";
}
object overhead_line {
  name "line_354";
// downstream 2282.26 kva on A
  from "233";
  to "189";
  phases A;
  length 2.9358;
  continuous_rating_A 400.00;
  emergency_rating_A 600.00;
  configuration feeder1_"lcon_singapore_line_type_1_A";
}
object overhead_line {
  name "line_113";
// downstream 113.04 kva on A
  from "370";
  to "369";
  phases A;
  length 0.2292;
  continuous_rating_A 400.00;
  emergency_rating_A 600.00;
  configuration feeder1_"lcon_singapore_line_type_3_A";
}
object overhead_line {
  name "line_234";
// downstream 1792.25 kva on A
  from "120";
  to "119";
  phases A;
  length 0.4796;
  continuous_rating_A 400.00;
  emergency_rating_A 600.00;
  configuration feeder1_"lcon_singapore_line_type_3_A";
}
object overhead_line {
  name "line_355";
// downstream 2206.28 kva on A
  from "189";
  to "75";
  phases A;
  length 0.4678;
  continuous_rating_A 400.00;
  emergency_rating_A 600.00;
  configuration feeder1_"lcon_singapore_line_type_1_A";
}
object overhead_line {
  name "line_114";
// downstream 6001.80 kva on A
  from "1";
  to "347";
  phases A;
  length 1.3345;
  continuous_rating_A 400.00;
  emergency_rating_A 600.00;
  configuration feeder1_"lcon_singapore_line_type_1_A";
}
object overhead_line {
  name "line_235";
// downstream 1696.15 kva on A
  from "119";
  to "112";
  phases A;
  length 0.4258;
  continuous_rating_A 400.00;
  emergency_rating_A 600.00;
  configuration feeder1_"lcon_singapore_line_type_3_A";
}
object overhead_line {
  name "line_356";
// downstream 2131.73 kva on A
  from "75";
  to "175";
  phases A;
  length 0.2304;
  continuous_rating_A 400.00;
  emergency_rating_A 600.00;
  configuration feeder1_"lcon_singapore_line_type_1_A";
}
object overhead_line {
  name "line_115";
// downstream 5930.19 kva on A
  from "347";
  to "346";
  phases A;
  length 0.4211;
  continuous_rating_A 400.00;
  emergency_rating_A 600.00;
  configuration feeder1_"lcon_singapore_line_type_1_A";
}
object overhead_line {
  name "line_236";
// downstream 1595.91 kva on A
  from "112";
  to "111";
  phases A;
  length 0.6378;
  continuous_rating_A 400.00;
  emergency_rating_A 600.00;
  configuration feeder1_"lcon_singapore_line_type_3_A";
}
object overhead_line {
  name "line_357";
// downstream 2055.65 kva on A
  from "175";
  to "178";
  phases A;
  length 0.6797;
  continuous_rating_A 400.00;
  emergency_rating_A 600.00;
  configuration feeder1_"lcon_singapore_line_type_1_A";
}
object overhead_line {
  name "line_116";
// downstream 5834.82 kva on A
  from "346";
  to "348";
  phases A;
  length 0.3152;
  continuous_rating_A 400.00;
  emergency_rating_A 600.00;
  configuration feeder1_"lcon_singapore_line_type_1_A";
}
object overhead_line {
  name "line_237";
// downstream 1334.29 kva on A
  from "202";
  to "84";
  phases A;
  length 0.5632;
  continuous_rating_A 400.00;
  emergency_rating_A 600.00;
  configuration feeder1_"lcon_singapore_line_type_3_A";
}
object overhead_line {
  name "line_358";
// downstream 1980.26 kva on A
  from "178";
  to "85";
  phases A;
  length 0.8965;
  continuous_rating_A 400.00;
  emergency_rating_A 600.00;
  configuration feeder1_"lcon_singapore_line_type_1_A";
}
object overhead_line {
  name "line_117";
// downstream 5685.82 kva on A
  from "348";
  to "349";
  phases A;
  length 0.2527;
  continuous_rating_A 400.00;
  emergency_rating_A 600.00;
  configuration feeder1_"lcon_singapore_line_type_1_A";
}
object overhead_line {
  name "line_238";
// downstream 1282.33 kva on A
  from "111";
  to "63";
  phases A;
  length 0.8459;
  continuous_rating_A 400.00;
  emergency_rating_A 600.00;
  configuration feeder1_"lcon_singapore_line_type_3_A";
}
object overhead_line {
  name "line_359";
// downstream 4148.28 kva on A
  from "4";
  to "234";
  phases A;
  length 1.8467;
  continuous_rating_A 400.00;
  emergency_rating_A 600.00;
  configuration feeder1_"lcon_singapore_line_type_3_A";
}
object overhead_line {
  name "line_118";
// downstream 5571.16 kva on A
  from "349";
  to "363";
  phases A;
  length 0.9059;
  continuous_rating_A 400.00;
  emergency_rating_A 600.00;
  configuration feeder1_"lcon_singapore_line_type_1_A";
}
object overhead_line {
  name "line_239";
// downstream 972.78 kva on A
  from "63";
  to "91";
  phases A;
  length 0.5522;
  continuous_rating_A 400.00;
  emergency_rating_A 600.00;
  configuration feeder1_"lcon_singapore_line_type_3_A";
}
object overhead_line {
  name "line_119";
// downstream 5417.77 kva on A
  from "363";
  to "330";
  phases A;
  length 0.5552;
  continuous_rating_A 400.00;
  emergency_rating_A 600.00;
  configuration feeder1_"lcon_singapore_line_type_1_A";
}
object overhead_line {
  name "line_10";
// downstream 7024.31 kva on A
  from "1";
  to "37";
  phases A;
  length 1.1075;
  continuous_rating_A 400.00;
  emergency_rating_A 600.00;
  configuration feeder1_"lcon_singapore_line_type_1_A";
}
object overhead_line {
  name "line_11";
// downstream 6947.04 kva on A
  from "37";
  to "39";
  phases A;
  length 1.8573;
  continuous_rating_A 400.00;
  emergency_rating_A 600.00;
  configuration feeder1_"lcon_singapore_line_type_1_A";
}
object overhead_line {
  name "line_12";
// downstream 6871.12 kva on A
  from "39";
  to "41";
  phases A;
  length 0.4954;
  continuous_rating_A 400.00;
  emergency_rating_A 600.00;
  configuration feeder1_"lcon_singapore_line_type_1_A";
}
object overhead_line {
  name "line_13";
// downstream 6733.50 kva on A
  from "41";
  to "57";
  phases A;
  length 0.2546;
  continuous_rating_A 400.00;
  emergency_rating_A 600.00;
  configuration feeder1_"lcon_singapore_line_type_1_A";
}
object overhead_line {
  name "line_14";
// downstream 6659.53 kva on A
  from "57";
  to "314";
  phases A;
  length 2.5464;
  continuous_rating_A 400.00;
  emergency_rating_A 600.00;
  configuration feeder1_"lcon_singapore_line_type_1_A";
}
object overhead_line {
  name "line_15";
// downstream 6463.02 kva on A
  from "314";
  to "316";
  phases A;
  length 0.3285;
  continuous_rating_A 400.00;
  emergency_rating_A 600.00;
  configuration feeder1_"lcon_singapore_line_type_1_A";
}
object overhead_line {
  name "line_16";
// downstream 6361.93 kva on A
  from "316";
  to "317";
  phases A;
  length 0.4176;
  continuous_rating_A 400.00;
  emergency_rating_A 600.00;
  configuration feeder1_"lcon_singapore_line_type_1_A";
}
object overhead_line {
  name "line_17";
// downstream 6210.28 kva on A
  from "317";
  to "125";
  phases A;
  length 0.4450;
  continuous_rating_A 400.00;
  emergency_rating_A 600.00;
  configuration feeder1_"lcon_singapore_line_type_1_A";
}
object overhead_line {
  name "line_18";
// downstream 6122.39 kva on A
  from "125";
  to "124";
  phases A;
  length 0.2693;
  continuous_rating_A 400.00;
  emergency_rating_A 600.00;
  configuration feeder1_"lcon_singapore_line_type_1_A";
}
object overhead_line {
  name "line_19";
// downstream 5994.16 kva on A
  from "124";
  to "318";
  phases A;
  length 0.3408;
  continuous_rating_A 400.00;
  emergency_rating_A 600.00;
  configuration feeder1_"lcon_singapore_line_type_1_A";
}
object overhead_line {
  name "line_360";
// downstream 4040.39 kva on A
  from "234";
  to "231";
  phases A;
  length 0.3516;
  continuous_rating_A 400.00;
  emergency_rating_A 600.00;
  configuration feeder1_"lcon_singapore_line_type_1_A";
}
object overhead_line {
  name "line_240";
// downstream 879.39 kva on A
  from "91";
  to "48";
  phases A;
  length 0.4437;
  continuous_rating_A 400.00;
  emergency_rating_A 600.00;
  configuration feeder1_"lcon_singapore_line_type_3_A";
}
object overhead_line {
  name "line_361";
// downstream 3954.57 kva on A
  from "231";
  to "232";
  phases A;
  length 0.5095;
  continuous_rating_A 400.00;
  emergency_rating_A 600.00;
  configuration feeder1_"lcon_singapore_line_type_1_A";
}
object overhead_line {
  name "line_120";
// downstream 5341.74 kva on A
  from "330";
  to "338";
  phases A;
  length 0.3236;
  continuous_rating_A 400.00;
  emergency_rating_A 600.00;
  configuration feeder1_"lcon_singapore_line_type_1_A";
}
object overhead_line {
  name "line_241";
// downstream 718.04 kva on A
  from "48";
  to "94";
  phases A;
  length 0.4786;
  continuous_rating_A 400.00;
  emergency_rating_A 600.00;
  configuration feeder1_"lcon_singapore_line_type_3_A";
}
object overhead_line {
  name "line_362";
// downstream 3874.32 kva on A
  from "232";
  to "257";
  phases A;
  length 0.5689;
  continuous_rating_A 400.00;
  emergency_rating_A 600.00;
  configuration feeder1_"lcon_singapore_line_type_1_A";
}
object overhead_line {
  name "line_121";
// downstream 5239.83 kva on A
  from "338";
  to "355";
  phases A;
  length 0.3806;
  continuous_rating_A 400.00;
  emergency_rating_A 600.00;
  configuration feeder1_"lcon_singapore_line_type_1_A";
}
object overhead_line {
  name "line_242";
// downstream 627.75 kva on A
  from "94";
  to "89";
  phases A;
  length 0.6299;
  continuous_rating_A 400.00;
  emergency_rating_A 600.00;
  configuration feeder1_"lcon_singapore_line_type_3_A";
}
object overhead_line {
  name "line_363";
// downstream 3792.62 kva on A
  from "257";
  to "283";
  phases A;
  length 2.4466;
  continuous_rating_A 400.00;
  emergency_rating_A 600.00;
  configuration feeder1_"lcon_singapore_line_type_1_A";
}
object overhead_line {
  name "line_122";
// downstream 239.84 kva on A
  from "355";
  to "379";
  phases A;
  length 0.3239;
  continuous_rating_A 400.00;
  emergency_rating_A 600.00;
  configuration feeder1_"lcon_singapore_line_type_3_A";
}
object overhead_line {
  name "line_243";
// downstream 529.04 kva on A
  from "202";
  to "200";
  phases A;
  length 0.5996;
  continuous_rating_A 400.00;
  emergency_rating_A 600.00;
  configuration feeder1_"lcon_singapore_line_type_3_A";
}
object overhead_line {
  name "line_364";
// downstream 3718.71 kva on A
  from "283";
  to "285";
  phases A;
  length 0.3517;
  continuous_rating_A 400.00;
  emergency_rating_A 600.00;
  configuration feeder1_"lcon_singapore_line_type_1_A";
}
object overhead_line {
  name "line_123";
// downstream 114.37 kva on A
  from "379";
  to "377";
  phases A;
  length 0.3253;
  continuous_rating_A 400.00;
  emergency_rating_A 600.00;
  configuration feeder1_"lcon_singapore_line_type_3_A";
}
object overhead_line {
  name "line_244";
// downstream 492.68 kva on A
  from "89";
  to "179";
  phases A;
  length 1.1443;
  continuous_rating_A 400.00;
  emergency_rating_A 600.00;
  configuration feeder1_"lcon_singapore_line_type_3_A";
}
object overhead_line {
  name "line_365";
// downstream 3493.82 kva on A
  from "285";
  to "86";
  phases A;
  length 0.3178;
  continuous_rating_A 400.00;
  emergency_rating_A 600.00;
  configuration feeder1_"lcon_singapore_line_type_1_A";
}
object overhead_line {
  name "line_124";
// downstream 3901.23 kva on A
  from "1";
  to "353";
  phases A;
  length 1.6883;
  continuous_rating_A 400.00;
  emergency_rating_A 600.00;
  configuration feeder1_"lcon_singapore_line_type_3_A";
}
object overhead_line {
  name "line_245";
// downstream 449.20 kva on A
  from "200";
  to "100";
  phases A;
  length 0.3701;
  continuous_rating_A 400.00;
  emergency_rating_A 600.00;
  configuration feeder1_"lcon_singapore_line_type_3_A";
}
object overhead_line {
  name "line_366";
// downstream 5141.42 kva on A
  from "4";
  to "253";
  phases A;
  length 2.4759;
  continuous_rating_A 400.00;
  emergency_rating_A 600.00;
  configuration feeder1_"lcon_singapore_line_type_3_A";
}
object overhead_line {
  name "line_125";
// downstream 3830.41 kva on A
  from "353";
  to "345";
  phases A;
  length 0.1859;
  continuous_rating_A 400.00;
  emergency_rating_A 600.00;
  configuration feeder1_"lcon_singapore_line_type_1_A";
}
object overhead_line {
  name "line_246";
// downstream 425.65 kva on A
  from "179";
  to "88";
  phases A;
  length 0.8114;
  continuous_rating_A 400.00;
  emergency_rating_A 600.00;
  configuration feeder1_"lcon_singapore_line_type_3_A";
}
object overhead_line {
  name "line_367";
// downstream 5076.13 kva on A
  from "253";
  to "205";
  phases A;
  length 0.9706;
  continuous_rating_A 400.00;
  emergency_rating_A 600.00;
  configuration feeder1_"lcon_singapore_line_type_1_A";
}
object overhead_line {
  name "line_126";
// downstream 3747.62 kva on A
  from "345";
  to "357";
  phases A;
  length 0.5552;
  continuous_rating_A 400.00;
  emergency_rating_A 600.00;
  configuration feeder1_"lcon_singapore_line_type_1_A";
}
object overhead_line {
  name "line_247";
// downstream 229.21 kva on A
  from "63";
  to "61";
  phases A;
  length 0.4888;
  continuous_rating_A 400.00;
  emergency_rating_A 600.00;
  configuration feeder1_"lcon_singapore_line_type_3_A";
}
object overhead_line {
  name "line_368";
// downstream 76.14 kva on A
  from "205";
  to "236";
  phases A;
  length 0.0374;
  continuous_rating_A 400.00;
  emergency_rating_A 600.00;
  configuration feeder1_"lcon_singapore_line_type_3_A";
}
object overhead_line {
  name "line_127";
// downstream 3585.60 kva on A
  from "357";
  to "374";
  phases A;
  length 0.6258;
  continuous_rating_A 400.00;
  emergency_rating_A 600.00;
  configuration feeder1_"lcon_singapore_line_type_1_A";
}
object overhead_line {
  name "line_248";
// downstream 205.92 kva on A
  from "111";
  to "50";
  phases A;
  length 0.6926;
  continuous_rating_A 400.00;
  emergency_rating_A 600.00;
  configuration feeder1_"lcon_singapore_line_type_3_A";
}
object overhead_line {
  name "line_369";
// downstream 5946.37 kva on A
  from "4";
  to "259";
  phases A;
  length 0.9900;
  continuous_rating_A 400.00;
  emergency_rating_A 600.00;
  configuration feeder1_"lcon_singapore_line_type_1_A";
}
object overhead_line {
  name "line_128";
// downstream 3104.69 kva on A
  from "374";
  to "331";
  phases A;
  length 0.9388;
  continuous_rating_A 400.00;
  emergency_rating_A 600.00;
  configuration feeder1_"lcon_singapore_line_type_1_A";
}
object overhead_line {
  name "line_249";
// downstream 188.58 kva on A
  from "88";
  to "199";
  phases A;
  length 0.4217;
  continuous_rating_A 400.00;
  emergency_rating_A 600.00;
  configuration feeder1_"lcon_singapore_line_type_3_A";
}
object overhead_line {
  name "line_129";
// downstream 398.79 kva on A
  from "374";
  to "373";
  phases A;
  length 0.5042;
  continuous_rating_A 400.00;
  emergency_rating_A 600.00;
  configuration feeder1_"lcon_singapore_line_type_3_A";
}
object overhead_line {
  name "line_20";
// downstream 5879.47 kva on A
  from "318";
  to "296";
  phases A;
  length 0.3711;
  continuous_rating_A 400.00;
  emergency_rating_A 600.00;
  configuration feeder1_"lcon_singapore_line_type_1_A";
}
object overhead_line {
  name "line_21";
// downstream 5751.65 kva on A
  from "296";
  to "295";
  phases A;
  length 0.3101;
  continuous_rating_A 400.00;
  emergency_rating_A 600.00;
  configuration feeder1_"lcon_singapore_line_type_1_A";
}
object overhead_line {
  name "line_22";
// downstream 4999.99 kva on A
  from "295";
  to "279";
  phases A;
  length 0.2995;
  continuous_rating_A 400.00;
  emergency_rating_A 600.00;
  configuration feeder1_"lcon_singapore_line_type_3_A";
}
object overhead_line {
  name "line_23";
// downstream 548.85 kva on A
  from "295";
  to "297";
  phases A;
  length 0.6599;
  continuous_rating_A 400.00;
  emergency_rating_A 600.00;
  configuration feeder1_"lcon_singapore_line_type_3_A";
}
object overhead_line {
  name "line_24";
// downstream 70.62 kva on A
  from "314";
  to "315";
  phases A;
  length 0.5106;
  continuous_rating_A 400.00;
  emergency_rating_A 600.00;
  configuration feeder1_"lcon_singapore_line_type_3_A";
}
object overhead_line {
  name "line_25";
// downstream 7688.68 kva on A
  from "1";
  to "38";
  phases A;
  length 2.6110;
  continuous_rating_A 400.00;
  emergency_rating_A 600.00;
  configuration feeder1_"lcon_singapore_line_type_1_A";
}
object overhead_line {
  name "line_26";
// downstream 7591.03 kva on A
  from "38";
  to "126";
  phases A;
  length 5.0304;
  continuous_rating_A 400.00;
  emergency_rating_A 600.00;
  configuration feeder1_"lcon_singapore_line_type_1_A";
}
object overhead_line {
  name "line_27";
// downstream 7476.29 kva on A
  from "126";
  to "127";
  phases A;
  length 0.3143;
  continuous_rating_A 400.00;
  emergency_rating_A 600.00;
  configuration feeder1_"lcon_singapore_line_type_1_A";
}
object overhead_line {
  name "line_28";
// downstream 6791.29 kva on A
  from "127";
  to "307";
  phases A;
  length 0.6263;
  continuous_rating_A 400.00;
  emergency_rating_A 600.00;
  configuration feeder1_"lcon_singapore_line_type_1_A";
}
object overhead_line {
  name "line_29";
// downstream 6656.12 kva on A
  from "307";
  to "281";
  phases A;
  length 0.3018;
  continuous_rating_A 400.00;
  emergency_rating_A 600.00;
  configuration feeder1_"lcon_singapore_line_type_1_A";
}
object overhead_line {
  name "line_370";
// downstream 5866.01 kva on A
  from "259";
  to "235";
  phases A;
  length 1.1508;
  continuous_rating_A 400.00;
  emergency_rating_A 600.00;
  configuration feeder1_"lcon_singapore_line_type_1_A";
}
object overhead_line {
  name "line_250";
// downstream 186.88 kva on A
  from "100";
  to "90";
  phases A;
  length 0.3013;
  continuous_rating_A 400.00;
  emergency_rating_A 600.00;
  configuration feeder1_"lcon_singapore_line_type_3_A";
}
object overhead_line {
  name "line_371";
// downstream 5790.28 kva on A
  from "235";
  to "229";
  phases A;
  length 0.6814;
  continuous_rating_A 400.00;
  emergency_rating_A 600.00;
  configuration feeder1_"lcon_singapore_line_type_1_A";
}
object overhead_line {
  name "line_130";
// downstream 304.99 kva on A
  from "373";
  to "354";
  phases A;
  length 0.8071;
  continuous_rating_A 400.00;
  emergency_rating_A 600.00;
  configuration feeder1_"lcon_singapore_line_type_3_A";
}
object overhead_line {
  name "line_251";
// downstream 163.24 kva on A
  from "88";
  to "87";
  phases A;
  length 0.2744;
  continuous_rating_A 400.00;
  emergency_rating_A 600.00;
  configuration feeder1_"lcon_singapore_line_type_3_A";
}
object overhead_line {
  name "line_372";
// downstream 5565.65 kva on A
  from "229";
  to "228";
  phases A;
  length 0.6239;
  continuous_rating_A 400.00;
  emergency_rating_A 600.00;
  configuration feeder1_"lcon_singapore_line_type_1_A";
}
object overhead_line {
  name "line_131";
// downstream 223.39 kva on A
  from "354";
  to "375";
  phases A;
  length 0.9785;
  continuous_rating_A 400.00;
  emergency_rating_A 600.00;
  configuration feeder1_"lcon_singapore_line_type_3_A";
}
object overhead_line {
  name "line_252";
// downstream 135.30 kva on A
  from "61";
  to "44";
  phases A;
  length 0.3441;
  continuous_rating_A 400.00;
  emergency_rating_A 600.00;
  configuration feeder1_"lcon_singapore_line_type_3_A";
}
object overhead_line {
  name "line_373";
// downstream 5414.13 kva on A
  from "228";
  to "258";
  phases A;
  length 0.4610;
  continuous_rating_A 400.00;
  emergency_rating_A 600.00;
  configuration feeder1_"lcon_singapore_line_type_1_A";
}
object overhead_line {
  name "line_132";
// downstream 156.29 kva on A
  from "375";
  to "332";
  phases A;
  length 1.4964;
  continuous_rating_A 400.00;
  emergency_rating_A 600.00;
  configuration feeder1_"lcon_singapore_line_type_3_A";
}
object overhead_line {
  name "line_253";
// downstream 97.17 kva on A
  from "50";
  to "49";
  phases A;
  length 0.5918;
  continuous_rating_A 400.00;
  emergency_rating_A 600.00;
  configuration feeder1_"lcon_singapore_line_type_3_A";
}
object overhead_line {
  name "line_374";
// downstream 5262.79 kva on A
  from "258";
  to "227";
  phases A;
  length 0.4154;
  continuous_rating_A 400.00;
  emergency_rating_A 600.00;
  configuration feeder1_"lcon_singapore_line_type_1_A";
}
object overhead_line {
  name "line_133";
// downstream 141.27 kva on A
  from "331";
  to "342";
  phases A;
  length 0.3904;
  continuous_rating_A 400.00;
  emergency_rating_A 600.00;
  configuration feeder1_"lcon_singapore_line_type_3_A";
}
object overhead_line {
  name "line_254";
// downstream 80.57 kva on A
  from "48";
  to "47";
  phases A;
  length 0.5147;
  continuous_rating_A 400.00;
  emergency_rating_A 600.00;
  configuration feeder1_"lcon_singapore_line_type_3_A";
}
object overhead_line {
  name "line_375";
// downstream 5149.37 kva on A
  from "227";
  to "255";
  phases A;
  length 1.1960;
  continuous_rating_A 400.00;
  emergency_rating_A 600.00;
  configuration feeder1_"lcon_singapore_line_type_1_A";
}
object overhead_line {
  name "line_134";
// downstream 77.59 kva on A
  from "357";
  to "358";
  phases A;
  length 0.3025;
  continuous_rating_A 400.00;
  emergency_rating_A 600.00;
  configuration feeder1_"lcon_singapore_line_type_3_A";
}
object overhead_line {
  name "line_255";
// downstream 76.08 kva on A
  from "199";
  to "122";
  phases A;
  length 0.4408;
  continuous_rating_A 400.00;
  emergency_rating_A 600.00;
  configuration feeder1_"lcon_singapore_line_type_3_A";
}
object overhead_line {
  name "line_376";
// downstream 5074.58 kva on A
  from "255";
  to "83";
  phases A;
  length 0.7305;
  continuous_rating_A 400.00;
  emergency_rating_A 600.00;
  configuration feeder1_"lcon_singapore_line_type_1_A";
}
object overhead_line {
  name "line_135";
// downstream 69.51 kva on A
  from "332";
  to "376";
  phases A;
  length 0.8483;
  continuous_rating_A 400.00;
  emergency_rating_A 600.00;
  configuration feeder1_"lcon_singapore_line_type_3_A";
}
object overhead_line {
  name "line_256";
// downstream 75.40 kva on A
  from "87";
  to "25";
  phases A;
  length 0.4943;
  continuous_rating_A 400.00;
  emergency_rating_A 600.00;
  configuration feeder1_"lcon_singapore_line_type_3_A";
}
object overhead_line {
  name "line_377";
// downstream 150.04 kva on A
  from "229";
  to "230";
  phases A;
  length 0.3260;
  continuous_rating_A 400.00;
  emergency_rating_A 600.00;
  configuration feeder1_"lcon_singapore_line_type_3_A";
}
object overhead_line {
  name "line_136";
// downstream 65.16 kva on A
  from "342";
  to "341";
  phases A;
  length 1.3536;
  continuous_rating_A 400.00;
  emergency_rating_A 600.00;
  configuration feeder1_"lcon_singapore_line_type_3_A";
}
object overhead_line {
  name "line_257";
// downstream 7664.03 kva on A
  from "3";
  to "180";
  phases A;
  length 2.6484;
  continuous_rating_A 400.00;
  emergency_rating_A 600.00;
  configuration feeder1_"lcon_singapore_line_type_1_A";
}
object overhead_line {
  name "line_378";
// downstream 75.23 kva on A
  from "230";
  to "252";
  phases A;
  length 0.3859;
  continuous_rating_A 400.00;
  emergency_rating_A 600.00;
  configuration feeder1_"lcon_singapore_line_type_3_A";
}
object overhead_line {
  name "line_137";
// downstream 7123.71 kva on A
  from "1";
  to "359";
  phases A;
  length 2.1859;
  continuous_rating_A 400.00;
  emergency_rating_A 600.00;
  configuration feeder1_"lcon_singapore_line_type_1_A";
}
object overhead_line {
  name "line_258";
// downstream 7588.07 kva on A
  from "180";
  to "241";
  phases A;
  length 3.0608;
  continuous_rating_A 400.00;
  emergency_rating_A 600.00;
  configuration feeder1_"lcon_singapore_line_type_1_A";
}
object overhead_line {
  name "line_379";
// downstream 74.59 kva on A
  from "83";
  to "282";
  phases A;
  length 0.5830;
  continuous_rating_A 400.00;
  emergency_rating_A 600.00;
  configuration feeder1_"lcon_singapore_line_type_3_A";
}
object overhead_line {
  name "line_138";
// downstream 7019.62 kva on A
  from "359";
  to "333";
  phases A;
  length 1.0670;
  continuous_rating_A 400.00;
  emergency_rating_A 600.00;
  configuration feeder1_"lcon_singapore_line_type_1_A";
}
object overhead_line {
  name "line_259";
// downstream 7513.85 kva on A
  from "241";
  to "211";
  phases A;
  length 0.4151;
  continuous_rating_A 400.00;
  emergency_rating_A 600.00;
  configuration feeder1_"lcon_singapore_line_type_1_A";
}
object overhead_line {
  name "line_139";
// downstream 6943.58 kva on A
  from "333";
  to "334";
  phases A;
  length 0.6641;
  continuous_rating_A 400.00;
  emergency_rating_A 600.00;
  configuration feeder1_"lcon_singapore_line_type_1_A";
}
object overhead_line {
  name "line_30";
// downstream 327.74 kva on A
  from "281";
  to "305";
  phases A;
  length 0.3082;
  continuous_rating_A 400.00;
  emergency_rating_A 600.00;
  configuration feeder1_"lcon_singapore_line_type_3_A";
}
object overhead_line {
  name "line_31";
// downstream 230.16 kva on A
  from "127";
  to "306";
  phases A;
  length 0.4361;
  continuous_rating_A 400.00;
  emergency_rating_A 600.00;
  configuration feeder1_"lcon_singapore_line_type_3_A";
}
object overhead_line {
  name "line_32";
// downstream 7965.14 kva on A
  from "1";
  to "40";
  phases A;
  length 3.4733;
  continuous_rating_A 400.00;
  emergency_rating_A 600.00;
  configuration feeder1_"lcon_singapore_line_type_1_A";
}
object overhead_line {
  name "line_33";
// downstream 7688.96 kva on A
  from "40";
  to "22";
  phases A;
  length 0.3074;
  continuous_rating_A 400.00;
  emergency_rating_A 600.00;
  configuration feeder1_"lcon_singapore_line_type_1_A";
}
object overhead_line {
  name "line_34";
// downstream 7474.72 kva on A
  from "22";
  to "15";
  phases A;
  length 0.0819;
  continuous_rating_A 400.00;
  emergency_rating_A 600.00;
  configuration feeder1_"lcon_singapore_line_type_1_A";
}
object overhead_line {
  name "line_35";
// downstream 4999.99 kva on A
  from "15";
  to "10";
  phases A;
  length 0.3615;
  continuous_rating_A 400.00;
  emergency_rating_A 600.00;
  configuration feeder1_"lcon_singapore_line_type_3_A";
}
object overhead_line {
  name "line_36";
// downstream 4930.02 kva on A
  from "1";
  to "43";
  phases A;
  length 2.1022;
  continuous_rating_A 400.00;
  emergency_rating_A 600.00;
  configuration feeder1_"lcon_singapore_line_type_3_A";
}
object overhead_line {
  name "line_37";
// downstream 4811.30 kva on A
  from "43";
  to "5";
  phases A;
  length 0.1686;
  continuous_rating_A 400.00;
  emergency_rating_A 600.00;
  configuration feeder1_"lcon_singapore_line_type_1_A";
}
object overhead_line {
  name "line_38";
// downstream 375.27 kva on A
  from "5";
  to "272";
  phases A;
  length 0.3158;
  continuous_rating_A 400.00;
  emergency_rating_A 600.00;
  configuration feeder1_"lcon_singapore_line_type_3_A";
}
object overhead_line {
  name "line_39";
// downstream 218.79 kva on A
  from "272";
  to "273";
  phases A;
  length 0.4073;
  continuous_rating_A 400.00;
  emergency_rating_A 600.00;
  configuration feeder1_"lcon_singapore_line_type_3_A";
}
object overhead_line {
  name "line_380";
// downstream 6304.75 kva on A
  from "4";
  to "260";
  phases A;
  length 1.4504;
  continuous_rating_A 400.00;
  emergency_rating_A 600.00;
  configuration feeder1_"lcon_singapore_line_type_1_A";
}
object overhead_line {
  name "line_260";
// downstream 6825.95 kva on A
  from "211";
  to "78";
  phases A;
  length 1.6927;
  continuous_rating_A 400.00;
  emergency_rating_A 600.00;
  configuration feeder1_"lcon_singapore_line_type_1_A";
}
object overhead_line {
  name "line_381";
// downstream 6142.31 kva on A
  from "260";
  to "237";
  phases A;
  length 0.6796;
  continuous_rating_A 400.00;
  emergency_rating_A 600.00;
  configuration feeder1_"lcon_singapore_line_type_1_A";
}
object overhead_line {
  name "line_140";
// downstream 6868.04 kva on A
  from "334";
  to "335";
  phases A;
  length 0.7865;
  continuous_rating_A 400.00;
  emergency_rating_A 600.00;
  configuration feeder1_"lcon_singapore_line_type_1_A";
}
object overhead_line {
  name "line_261";
// downstream 6730.86 kva on A
  from "78";
  to "93";
  phases A;
  length 1.1041;
  continuous_rating_A 400.00;
  emergency_rating_A 600.00;
  configuration feeder1_"lcon_singapore_line_type_1_A";
}
object overhead_line {
  name "line_382";
// downstream 5163.36 kva on A
  from "237";
  to "176";
  phases A;
  length 2.2062;
  continuous_rating_A 400.00;
  emergency_rating_A 600.00;
  configuration feeder1_"lcon_singapore_line_type_1_A";
}
object overhead_line {
  name "line_141";
// downstream 6779.58 kva on A
  from "335";
  to "336";
  phases A;
  length 0.5831;
  continuous_rating_A 400.00;
  emergency_rating_A 600.00;
  configuration feeder1_"lcon_singapore_line_type_1_A";
}
object overhead_line {
  name "line_262";
// downstream 575.30 kva on A
  from "211";
  to "212";
  phases A;
  length 0.5225;
  continuous_rating_A 400.00;
  emergency_rating_A 600.00;
  configuration feeder1_"lcon_singapore_line_type_3_A";
}
object overhead_line {
  name "line_383";
// downstream 5088.32 kva on A
  from "176";
  to "190";
  phases A;
  length 0.4184;
  continuous_rating_A 400.00;
  emergency_rating_A 600.00;
  configuration feeder1_"lcon_singapore_line_type_1_A";
}
object overhead_line {
  name "line_142";
// downstream 6691.15 kva on A
  from "336";
  to "337";
  phases A;
  length 0.4278;
  continuous_rating_A 400.00;
  emergency_rating_A 600.00;
  configuration feeder1_"lcon_singapore_line_type_1_A";
}
object overhead_line {
  name "line_263";
// downstream 462.69 kva on A
  from "212";
  to "214";
  phases A;
  length 0.6627;
  continuous_rating_A 400.00;
  emergency_rating_A 600.00;
  configuration feeder1_"lcon_singapore_line_type_3_A";
}
object overhead_line {
  name "line_384";
// downstream 4999.99 kva on A
  from "190";
  to "270";
  phases A;
  length 0.9638;
  continuous_rating_A 400.00;
  emergency_rating_A 600.00;
  configuration feeder1_"lcon_singapore_line_type_1_A";
}
object overhead_line {
  name "line_143";
// downstream 6615.18 kva on A
  from "337";
  to "378";
  phases A;
  length 0.3488;
  continuous_rating_A 400.00;
  emergency_rating_A 600.00;
  configuration feeder1_"lcon_singapore_line_type_1_A";
}
object overhead_line {
  name "line_264";
// downstream 374.20 kva on A
  from "214";
  to "243";
  phases A;
  length 0.4622;
  continuous_rating_A 400.00;
  emergency_rating_A 600.00;
  configuration feeder1_"lcon_singapore_line_type_3_A";
}
object overhead_line {
  name "line_385";
// downstream 871.33 kva on A
  from "237";
  to "238";
  phases A;
  length 0.6023;
  continuous_rating_A 400.00;
  emergency_rating_A 600.00;
  configuration feeder1_"lcon_singapore_line_type_3_A";
}
object overhead_line {
  name "line_144";
// downstream 6527.43 kva on A
  from "378";
  to "387";
  phases A;
  length 0.4218;
  continuous_rating_A 400.00;
  emergency_rating_A 600.00;
  configuration feeder1_"lcon_singapore_line_type_1_A";
}
object overhead_line {
  name "line_265";
// downstream 299.11 kva on A
  from "243";
  to "242";
  phases A;
  length 0.3594;
  continuous_rating_A 400.00;
  emergency_rating_A 600.00;
  configuration feeder1_"lcon_singapore_line_type_3_A";
}
object overhead_line {
  name "line_386";
// downstream 790.96 kva on A
  from "238";
  to "271";
...